<?xml version="1.0" encoding="iso-8859-1"?>
<!--
<ReadMe>

This XML can be imported in Altium Designer 14 using WEBENCH Altium Connector Extension and simulated using WEBENCH Simulation Engine.
The WEBENCH Altium Connector provides an interface to the Texas Instruments WEBENCH Designer Tools as well as to open WEBENCH exported Designs directly from inside Altium Designer.
It also includes the advanced WEBENCH Simulation Engine which can be used for offline circuit simulations.
You will need a activation key from TI to be able to use the WEBENCH Simulation Engine.

Installation guide:
http://www.ti.com/lit/SNVU481
You can download the WEBENCH extension from Altium Designer 14 Extensions.

Connector Details:
http://www.ti.com/lsds/ti/analog/webench/altiumconnector.page

More about WEBENCH simulation export to Altium:
http://www.ti.com/lsds/ti/analog/webench/simexportaltium.page

User Manual:
http://www.ti.com/lit/szzu007

</ReadMe>
-->
<schematic>
  <circuit>
    <text id="T_123456" position="400,-148" fontname="Times New Roman" fontsize="27" bold="0" color="#294901">
      <![CDATA[TLV61046A Startup Simulation
(Exported from WEBENCH® Designer)]]>
    </text>
    <text id="T_123456" position="945,-148" fontname="Arial" fontsize="13" bold="1" italic="1" color="#278190" border="1">
      <![CDATA[Title :    TLV61046ADBVR 4.5V-5.5V to 15.00V @ 0.1A
-------------------------------------------------------------------------
WEBENCH® Design ID                  :       1
Date of WEBENCH® Export           :       31-Jul-2019
Time of WEBENCH® Export          :       7:54:48 PM
WEBENCH® Export Tool Version :       E1.67-X2.27]]>
    </text>
    <component type="Cin" typeid="57" position="440,570" mirrored="0" nodematch="0" macrotype="2" orientation="0">
			<parameter idx="0" encrypted="0">
        <![CDATA[
***********************************
*     Created by WB Importer      *
***********************************
.SUBCKT MAIN_BLOCK_Cin_WB_CAP_POLARIZED 1 2
Ccap 1 3 3.0E-6
Resr 3 2 3.333333333333333E-4
.ENDS]]>
      </parameter>
			<image>
				<label text="Cin" position="446,548" textroot=" " orientation="0" color=""/>  <hotzone points="-24,60,24,-60"/>
        <shape type="line" width="Hair" color="#0000ff" points="0,-60,0,-40"/>
        <shape type="line" width="Hair" color="#0000ff" points="0,60,0,40"/>
        <shape type="line" width="1" color="#0000ff" points="24,-6,-24,-6"/>
        <shape type="line" width="1" color="#0000ff" points="0,40,0,6"/>
        <shape type="line" width="1" color="#0000ff" points="0,-6,0,-40"/>
        <shape type="line" width="1" color="#0000ff" points="24,6,-24,6"/>
        <legend text="1 uF" position="8,18" orientation="0" fontname="Arial" fontsize="12" bold="0" italic="0" color="#229922"/>
        <legend text="1 mOhm" position="8,32" orientation="0" fontname="Arial" fontsize="12" bold="0" italic="0" color="#229922"/>
        <legend text="qty=3" position="8,48" orientation="0" fontname="Arial" fontsize="12" bold="0" italic="0" color="#229922"/>
        <pin position="0,-60" dir="0" length="0" text="1"/>
        <pin position="0,60" dir="0" length="0" text="2"/>
      </image>
		</component>
    <component type="Cout" typeid="57" position="1150,570" mirrored="0" nodematch="0" macrotype="2" orientation="0">
			<parameter idx="0" encrypted="0">
        <![CDATA[
***********************************
*     Created by WB Importer      *
***********************************
.SUBCKT MAIN_BLOCK_Cout_WB_CAP_CERAMIC 2 4
R1 2 3 0.005
C1 3 4 1.0E-5 IC=0.0
R3 5 4 5
R2 2 4 9.999999999999999E7
R4 3 26 1111111.111111111
R6 3 7 1111.111111111111
C5 7 1 3.0000000000000004E-7 IC=0.0
R7 3 10 111.11111111111111
C6 10 1 3.0000000000000004E-7 IC=0.0
R8 3 13 11.11111111111111
C7 13 1 3.0000000000000004E-7 IC=0.0
C2 26 1 3.0000000000000004E-7 IC=0.0
R9 3 28 111111.11111111111
C3 28 1 3.0000000000000004E-7 IC=0.0
R10 3 29 11111.111111111111
C4 29 1 3.0000000000000004E-7 IC=0.0
L8 1 5 15p
R24 1 5 0.015
L12 5 4 1n
.ENDS]]>
      </parameter>
			<image>
				<label text="Cout" position="1156,548" textroot=" " orientation="0" color=""/>  <hotzone points="-24,60,24,-60"/>
        <shape type="line" width="Hair" color="#0000ff" points="0,-60,0,-40"/>
        <shape type="line" width="Hair" color="#0000ff" points="0,60,0,40"/>
        <shape type="line" width="1" color="#0000ff" points="24,-6,-24,-6"/>
        <shape type="line" width="1" color="#0000ff" points="0,40,0,6"/>
        <shape type="line" width="1" color="#0000ff" points="0,-6,0,-40"/>
        <shape type="line" width="1" color="#0000ff" points="24,6,-24,6"/>
        <legend text="10 uF" position="8,18" orientation="0" fontname="Arial" fontsize="12" bold="0" italic="0" color="#229922"/>
        <legend text="5 mOhm" position="8,32" orientation="0" fontname="Arial" fontsize="12" bold="0" italic="0" color="#229922"/>
        <legend text="" position="8,48" orientation="0" fontname="Arial" fontsize="12" bold="0" italic="0" color="#229922"/>
        <pin position="0,-60" dir="0" length="0" text="2"/>
        <pin position="0,60" dir="0" length="0" text="4"/>
      </image>
		</component>
    <component type="Ground" typeid="2" position="720,810" mirrored="0" nodematch="0" macrotype="2" orientation="0">
			<parameter idx="0" encrypted="0">
			</parameter>
			<image>
				<label text="GND1" position="720,810" textroot="GND1" orientation="0" color="#228822"/>
			</image>
		</component>
    <component type="ICout" typeid="34" position="1150,440" mirrored="0" nodematch="0" macrotype="2" orientation="0">
			<parameter idx="0" encrypted="0">
			</parameter>
			<image>
				<label text="ICout" position="1150,440" textroot=" " orientation="0" color=""/>  <hotzone points="6,-30,-6,30"/>
        <shape type="line" width="Hair" color="#0000ff" points="0,-30,0,30"/>
        <shape type="line" width="1" color="#0000ff" points="4,-6,-4,-6"/>
        <shape type="line" width="1" color="#0000ff" points="-4,-6,0,4"/>
        <shape type="line" width="1" color="#0000ff" points="0,4,4,-6"/>
        <pin position="0,-30" dir="0" length="0" text="1"/>
        <pin position="0,30" dir="0" length="0" text="2"/>
      </image>  <parameter idx="0" encrypted="0">
        <![CDATA[***********************************
*     Created by WB Importer      *
***********************************
.SUBCKT ICout 1 2 
V_Iprobe 1 2 0.0
.ENDS
]]>
      </parameter>
      <parameter idx="1" name="VALUE" value="0"/>
    </component>
    <component type="IIC" typeid="34" position="510,330" mirrored="0" nodematch="0" macrotype="2" orientation="0">
			<parameter idx="0" encrypted="0">
			</parameter>
			<image>
				<label text="IIC" position="510,330" textroot=" " orientation="0" color=""/>  <hotzone points="-30,-6,30,6"/>
        <shape type="line" width="Hair" color="#0000ff" points="-30,0,30,0"/>
        <shape type="line" width="1" color="#0000ff" points="-6,-4,-6,4"/>
        <shape type="line" width="1" color="#0000ff" points="-6,4,4,0"/>
        <shape type="line" width="1" color="#0000ff" points="4,0,-6,-4"/>
        <pin position="-30,0" dir="0" length="0" text="1"/>
        <pin position="30,0" dir="0" length="0" text="2"/>
      </image>  <parameter idx="0" encrypted="0">
        <![CDATA[***********************************
*     Created by WB Importer      *
***********************************
.SUBCKT IIC 1 2 
V_Iprobe 1 2 0.0
.ENDS
]]>
      </parameter>
      <parameter idx="1" name="VALUE" value="0"/>
    </component>
    <component type="IIn" typeid="34" position="320,370" mirrored="0" nodematch="0" macrotype="2" orientation="0">
			<parameter idx="0" encrypted="0">
			</parameter>
			<image>
				<label text="IIn" position="320,370" textroot=" " orientation="0" color=""/>  <hotzone points="-30,-6,30,6"/>
        <shape type="line" width="Hair" color="#0000ff" points="-30,0,30,0"/>
        <shape type="line" width="1" color="#0000ff" points="-6,-4,-6,4"/>
        <shape type="line" width="1" color="#0000ff" points="-6,4,4,0"/>
        <shape type="line" width="1" color="#0000ff" points="4,0,-6,-4"/>
        <pin position="-30,0" dir="0" length="0" text="1"/>
        <pin position="30,0" dir="0" length="0" text="2"/>
      </image>  <parameter idx="0" encrypted="0">
        <![CDATA[***********************************
*     Created by WB Importer      *
***********************************
.SUBCKT IIn 1 2 
V_Iprobe 1 2 0.0
.ENDS
]]>
      </parameter>
      <parameter idx="1" name="VALUE" value="0"/>
    </component>
    <component type="IInductor" typeid="34" position="540,140" mirrored="0" nodematch="0" macrotype="2" orientation="0">
			<parameter idx="0" encrypted="0">
			</parameter>
			<image>
				<label text="IInductor" position="540,140" textroot=" " orientation="0" color=""/>  <hotzone points="-30,-6,30,6"/>
        <shape type="line" width="Hair" color="#0000ff" points="-30,0,30,0"/>
        <shape type="line" width="1" color="#0000ff" points="-6,-4,-6,4"/>
        <shape type="line" width="1" color="#0000ff" points="-6,4,4,0"/>
        <shape type="line" width="1" color="#0000ff" points="4,0,-6,-4"/>
        <pin position="-30,0" dir="0" length="0" text="1"/>
        <pin position="30,0" dir="0" length="0" text="2"/>
      </image>  <parameter idx="0" encrypted="0">
        <![CDATA[***********************************
*     Created by WB Importer      *
***********************************
.SUBCKT IInductor 1 2 
V_Iprobe 1 2 0.0
.ENDS
]]>
      </parameter>
      <parameter idx="1" name="VALUE" value="0"/>
    </component>
    <component type="IOut" typeid="34" position="1230,370" mirrored="0" nodematch="0" macrotype="2" orientation="0">
			<parameter idx="0" encrypted="0">
			</parameter>
			<image>
				<label text="IOut" position="1230,370" textroot=" " orientation="0" color=""/>  <hotzone points="-30,-6,30,6"/>
        <shape type="line" width="Hair" color="#0000ff" points="-30,0,30,0"/>
        <shape type="line" width="1" color="#0000ff" points="-6,-4,-6,4"/>
        <shape type="line" width="1" color="#0000ff" points="-6,4,4,0"/>
        <shape type="line" width="1" color="#0000ff" points="4,0,-6,-4"/>
        <pin position="-30,0" dir="0" length="0" text="1"/>
        <pin position="30,0" dir="0" length="0" text="2"/>
      </image>  <parameter idx="0" encrypted="0">
        <![CDATA[***********************************
*     Created by WB Importer      *
***********************************
.SUBCKT IOut 1 2 
V_Iprobe 1 2 0.0
.ENDS
]]>
      </parameter>
      <parameter idx="1" name="VALUE" value="0"/>
    </component>
    <component type="ISwitch" typeid="34" position="830,140" mirrored="0" nodematch="0" macrotype="2" orientation="0">
			<parameter idx="0" encrypted="0">
			</parameter>
			<image>
				<label text="ISwitch" position="830,140" textroot=" " orientation="0" color=""/>  <hotzone points="-30,-6,30,6"/>
        <shape type="line" width="Hair" color="#0000ff" points="-30,0,30,0"/>
        <shape type="line" width="1" color="#0000ff" points="-6,-4,-6,4"/>
        <shape type="line" width="1" color="#0000ff" points="-6,4,4,0"/>
        <shape type="line" width="1" color="#0000ff" points="4,0,-6,-4"/>
        <pin position="-30,0" dir="0" length="0" text="1"/>
        <pin position="30,0" dir="0" length="0" text="2"/>
      </image>  <parameter idx="0" encrypted="0">
        <![CDATA[***********************************
*     Created by WB Importer      *
***********************************
.SUBCKT ISwitch 1 2 
V_Iprobe 1 2 0.0
.ENDS
]]>
      </parameter>
      <parameter idx="1" name="VALUE" value="0"/>
    </component>
    <component type="L1" typeid="57" position="680,140" mirrored="0" nodematch="0" macrotype="2" orientation="0">
			<parameter idx="0" encrypted="0">
        <![CDATA[
***********************************
*     Created by WB Importer      *
***********************************
.SUBCKT MAIN_BLOCK_L1_WB_INDUCTOR 1 2
L1 2 3 1.2E-5
RDCR 3 1 0.21
.ENDS]]>
      </parameter>
			<image>
				<label text="L1" position="646,110" textroot=" " orientation="0" color=""/>  <hotzone points="-60,-10,60,10"/>
        <shape type="line" width="Hair" color="#0000ff" points="40,0,60,0"/>
        <shape type="line" width="Hair" color="#0000ff" points="-40,0,-60,0"/>
        <legend text="12 uH" position="-30,8" orientation="0" fontname="Arial" fontsize="12" bold="0" italic="0" color="#229922"/>
        <legend text="0.21 Ohm" position="-30,22" orientation="0" fontname="Arial" fontsize="12" bold="0" italic="0" color="#229922"/>
        <shape type="arc" color="#0000ff" width="2" points="-40,-10,-20,10,90,90"/>
        <shape type="arc" color="#0000ff" width="2" points="-40,-10,-20,10,0,90"/>
        <shape type="arc" color="#0000ff" width="2" points="-20,-10,0,10,90,90"/>
        <shape type="arc" color="#0000ff" width="2" points="-20,-10,0,10,0,90"/>
        <shape type="arc" color="#0000ff" width="2" points="0,-10,20,10,90,90"/>
        <shape type="arc" color="#0000ff" width="2" points="0,-10,20,10,0,90"/>
        <shape type="arc" color="#0000ff" width="2" points="20,-10,40,10,90,90"/>
        <shape type="arc" color="#0000ff" width="2" points="20,-10,40,10,0,90"/>
        <pin position="-60,0" dir="0" length="0" text="1"/>
        <pin position="60,0" dir="0" length="0" text="2"/>
      </image>
		</component>
    <component type="Rfbb" typeid="57" position="970,680" mirrored="0" nodematch="0" macrotype="2" orientation="0">
			<parameter idx="0" encrypted="0">
        <![CDATA[
***********************************
*     Created by WB Importer      *
***********************************
.subckt MAIN_BLOCK_WB_TLV61046A_MAIN_BLOCK_Rfbb 1 2
Rfbb 1 2 71500.0

.ends]]>
      </parameter>
			<image>
				<label text="Rfbb" position="988,650" textroot=" " orientation="0" color=""/>  <hotzone points="-10,60,10,-60"/>
        <shape type="line" width="1" color="#0000ff" points="0,60,0,40"/>
        <shape type="line" width="1" color="#0000ff" points="0,40,-10,30"/>
        <shape type="line" width="1" color="#0000ff" points="-10,30,10,10"/>
        <shape type="line" width="1" color="#0000ff" points="10,10,-10,-10"/>
        <shape type="line" width="1" color="#0000ff" points="-10,-10,10,-30"/>
        <shape type="line" width="1" color="#0000ff" points="10,-30,0,-40"/>
        <shape type="line" width="1" color="#0000ff" points="0,-40,0,-60"/>
        <legend text="71.5 kOhm" position="10,-8" orientation="0" fontname="Arial" fontsize="12" bold="0" italic="0" color="#229922"/>
        <pin position="0,-60" dir="0" length="0" text="1"/>
        <pin position="0,60" dir="0" length="0" text="2"/>
      </image>
		</component>
    <component type="Rfbt" typeid="57" position="970,470" mirrored="0" nodematch="0" macrotype="2" orientation="0">
			<parameter idx="0" encrypted="0">
        <![CDATA[
***********************************
*     Created by WB Importer      *
***********************************
.subckt MAIN_BLOCK_WB_TLV61046A_MAIN_BLOCK_Rfbt 1 2
Rfbt 1 2 1270000.0

.ends]]>
      </parameter>
			<image>
				<label text="Rfbt" position="988,440" textroot=" " orientation="0" color=""/>  <hotzone points="-10,60,10,-60"/>
        <shape type="line" width="1" color="#0000ff" points="0,60,0,40"/>
        <shape type="line" width="1" color="#0000ff" points="0,40,-10,30"/>
        <shape type="line" width="1" color="#0000ff" points="-10,30,10,10"/>
        <shape type="line" width="1" color="#0000ff" points="10,10,-10,-10"/>
        <shape type="line" width="1" color="#0000ff" points="-10,-10,10,-30"/>
        <shape type="line" width="1" color="#0000ff" points="10,-30,0,-40"/>
        <shape type="line" width="1" color="#0000ff" points="0,-40,0,-60"/>
        <legend text="1.27 MOhm" position="10,-8" orientation="0" fontname="Arial" fontsize="12" bold="0" italic="0" color="#229922"/>
        <pin position="0,-60" dir="0" length="0" text="1"/>
        <pin position="0,60" dir="0" length="0" text="2"/>
      </image>
		</component>
    <component type="TLV61046ADBVR" typeid="57" position="700,410" mirrored="0" nodematch="0" macrotype="2" orientation="0">
			<parameter idx="0" encrypted="0">
        <![CDATA[*****************************************************************************
** MAIN_BLOCK.U1.WB_TLV61046ADBV Spice Model
*****************************************************************************
** (C) Copyright 2019 Texas Instruments Incorporated. All rights reserved.
** This model is designed as an aid for customers of Texas Instruments.
** TI and its licensors and suppliers make no warranties, either expressed
** or implied, with respect to this model, including the warranties of
** merchantability or fitness for a particular purpose. The model is
** provided solely on an "as is" basis. The entire risk as to its quality
** and performance is with the customer
*****************************************************************************
*****************************************************************************

.SUBCKT MAIN_BLOCK_U1_WB_TLV61046ADBV_ENCR SW GND FB EN VOUT VIN PARAMS: STEADY=0
.include pspice://../MAIN_BLOCK.U1.WB_TLV61046ADBV.enl
XCALL SW GND FB EN VOUT VIN MAIN_BLOCK_U1_WB_TLV61046ADBV PARAMS: STEADY=0 
.ENDS
]]>
      </parameter>
			<image>
				<label text="U1" position="560,230" textroot="U1 " orientation="0" color=""/>  <hotzone points="-140,-160,140,160"/>
        <shape type="line" width="Hair" color="#0000ff" points="-100,120,100,120"/>
        <shape type="line" width="Hair" color="#0000ff" points="100,120,100,-120"/>
        <shape type="line" width="Hair" color="#0000ff" points="100,-120,-100,-120"/>
        <shape type="line" width="Hair" color="#0000ff" points="-100,-120,-100,120"/>
        <shape type="line" width="Hair" color="#0000ff" points="140,-80,100,-80"/>
        <shape type="line" width="Hair" color="#0000ff" points="140,80,100,80"/>
        <shape type="line" width="Hair" color="#0000ff" points="140,40,100,40"/>
        <shape type="line" width="Hair" color="#0000ff" points="-140,-40,-100,-40"/>
        <shape type="line" width="Hair" color="#0000ff" points="140,-40,100,-40"/>
        <shape type="line" width="Hair" color="#0000ff" points="-140,-80,-100,-80"/>
        <shape type="line" width="1" color="#ff0000" points="-1,-95,-2,-90"/>
        <shape type="line" width="1" color="#ff0000" points="-1,-97,-1,-97"/>
        <shape type="polygon" width="1" color="#ff0000" fill="#ff0000" points="-7,-99,-7,-93,-11,-93,-11,-92,-10,-91,-9,-89,-8,-88,-7,-88,-6,-89,-5,-88,-4,-86,-1,-84,0,-84,0,-86,1,-88,3,-89,4,-90,4,-93,3,-94,3,-96,1,-96,0,-94,2,-94,1,-92,0,-92,-1,-90,0,-90,0,-89,-1,-88,-3,-88,-4,-89,-3,-92,-5,-92,-4,-94,-3,-94,-3,-94,-2,-96,-4,-96,-4,-98,-4,-99"/>
        <legend text="TLV61046ADBV" position="-48,-64" orientation="0" fontname="Arial" fontsize="10" bold="0" italic="0" color="4278190208"/>
        <pin position="140,-80" dir="0" length="0" text="SW">
          <legend text="SW" position="100,-90" orientation="0" fontname="Arial" fontsize="10" bold="0" italic="0" color="4286578688"/>
        </pin>
        <pin position="140,80" dir="0" length="0" text="GND">
          <legend text="GND" position="90,70" orientation="0" fontname="Arial" fontsize="10" bold="0" italic="0" color="4286578688"/>
        </pin>
        <pin position="140,40" dir="0" length="0" text="FB">
          <legend text="FB" position="100,30" orientation="0" fontname="Arial" fontsize="10" bold="0" italic="0" color="4286578688"/>
        </pin>
        <pin position="-140,-40" dir="0" length="0" text="EN">
          <legend text="EN" position="-118,-50" orientation="0" fontname="Arial" fontsize="10" bold="0" italic="0" color="4286578688"/>
        </pin>
        <pin position="140,-40" dir="0" length="0" text="VOUT">
          <legend text="VOUT" position="80,-50" orientation="0" fontname="Arial" fontsize="10" bold="0" italic="0" color="4286578688"/>
        </pin>
        <pin position="-140,-80" dir="0" length="0" text="VIN">
          <legend text="VIN" position="-118,-90" orientation="0" fontname="Arial" fontsize="10" bold="0" italic="0" color="4286578688"/>
        </pin>
      </image>
		</component>
    <component type="VIn" typeid="4" position="390,370" mirrored="0" nodematch="0" macrotype="2" orientation="0">
			<parameter idx="0" encrypted="0">
			</parameter>
			<image>
				<label text="VIn" position="390,340" textroot="VIn" orientation="0" color="#228822"/>
			</image>
		</component>
    <component type="VOut" typeid="4" position="1030,370" mirrored="0" nodematch="0" macrotype="2" orientation="0">
			<parameter idx="0" encrypted="0">
			</parameter>
			<image>
				<label text="VOut" position="1030,340" textroot="VOut" orientation="0" color="#228822"/>
			</image>
		</component>
    <component type="VSwitch" typeid="4" position="750,140" mirrored="0" nodematch="0" macrotype="2" orientation="0">
			<parameter idx="0" encrypted="0">
			</parameter>
			<image>
				<label text="VSwitch" position="750,110" textroot="VSwitch" orientation="0" color="#228822"/>
			</image>
		</component>
    <component type="Vin_2" typeid="57" position="250,530" mirrored="0" nodematch="0" macrotype="2" orientation="0">
			<parameter idx="0" encrypted="0">
        <![CDATA[
***********************************
*     Created by WB Importer      *
***********************************
.SUBCKT INPUT_BLOCK_Vin_WB_STARTUP_VOLTAGE_SOURCE 1 2
Rsource 3 1 1m
Vin1 3 2 PULSE 0 5.0 1u 10u
.ENDS]]>
      </parameter>
			<image>
				<label text="Vin_2" position="280,500" textroot=" " orientation="0" color=""/>  <hotzone points="30,-60,-30,60"/>
        <shape type="line" width="Hair" color="#0000ff" points="0,60,0,30"/>
        <shape type="line" width="Hair" color="#0000ff" points="0,-60,0,-30"/>
        <shape type="line" width="Hair" color="#0000ff" points="20,-30,20,-40"/>
        <shape type="line" width="Hair" color="#0000ff" points="14,-34,26,-34"/>
        <shape type="line" width="Hair" color="#0000ff" points="14,34,26,34"/>
        <shape type="line" width="1" color="#0000ff" points="-22,10,-16,10"/>
        <shape type="line" width="1" color="#0000ff" points="-16,10,-14,-10"/>
        <shape type="line" width="1" color="#0000ff" points="-14,-10,22,-10"/>
        <shape type="ellipse" points="-30,30,30,-30" color="#0000ff" width="2"/>
        <pin position="0,-60" dir="0" length="0" text="1"/>
        <pin position="0,60" dir="0" length="0" text="2"/>
      </image>
		</component>
    <component type="ILoad" typeid="34" position="1320,480" mirrored="0" nodematch="0" macrotype="2" orientation="0">
			<parameter idx="0" encrypted="0">
			</parameter>
			<image>
				<label text="ILoad" position="1320,480" textroot=" " orientation="0" color=""/>  <hotzone points="6,-30,-6,30"/>
        <shape type="line" width="Hair" color="#0000ff" points="0,-30,0,30"/>
        <shape type="line" width="1" color="#0000ff" points="4,-6,-4,-6"/>
        <shape type="line" width="1" color="#0000ff" points="-4,-6,0,4"/>
        <shape type="line" width="1" color="#0000ff" points="0,4,4,-6"/>
        <pin position="0,-30" dir="0" length="0" text="1"/>
        <pin position="0,30" dir="0" length="0" text="2"/>
      </image>  <parameter idx="0" encrypted="0">
        <![CDATA[***********************************
*     Created by WB Importer      *
***********************************
.SUBCKT ILoad 1 2 
V_Iprobe 1 2 0.0
.ENDS
]]>
      </parameter>
      <parameter idx="1" name="VALUE" value="0"/>
    </component>
    <component type="Rload" typeid="57" position="1320,670" mirrored="0" nodematch="0" macrotype="2" orientation="0">
			<parameter idx="0" encrypted="0">
        <![CDATA[
***********************************
*     Created by WB Importer      *
***********************************
.subckt OUTPUT_BLOCK_WB_OUTPUT_BLOCK_STARTUP_PROBE_Rload 1 2
Rload 1 2 150.0

.ends]]>
      </parameter>
			<image>
				<label text="Rload" position="1338,640" textroot=" " orientation="0" color=""/>  <hotzone points="-10,60,10,-60"/>
        <shape type="line" width="1" color="#0000ff" points="0,60,0,40"/>
        <shape type="line" width="1" color="#0000ff" points="0,40,-10,30"/>
        <shape type="line" width="1" color="#0000ff" points="-10,30,10,10"/>
        <shape type="line" width="1" color="#0000ff" points="10,10,-10,-10"/>
        <shape type="line" width="1" color="#0000ff" points="-10,-10,10,-30"/>
        <shape type="line" width="1" color="#0000ff" points="10,-30,0,-40"/>
        <shape type="line" width="1" color="#0000ff" points="0,-40,0,-60"/>
        <pin position="0,-60" dir="0" length="0" text="1"/>
        <pin position="0,60" dir="0" length="0" text="2"/>
      </image>
		</component>
    <wire points="250,370,270,370" label=""/>
    <wire points="1300,370,1320,370" label=""/>
    <wire points="1300,810,1320,810" label=""/>
    <wire points="250,810,270,810" label=""/>
    <wire points="290,370,270,370" label=""/>
    <wire points="440,810,440,630" label=""/>
    <wire points="440,370,440,510" label=""/>
    <wire points="470,140,470,370" label=""/>
    <wire points="470,140,510,140" label=""/>
    <wire points="480,330,470,330" label=""/>
    <wire points="560,370,350,370" label=""/>
    <wire points="560,330,540,330" label=""/>
    <wire points="570,140,620,140" label=""/>
    <wire points="740,140,800,140" label=""/>
    <wire points="840,490,840,810" label=""/>
    <wire points="840,450,880,450" label=""/>
    <wire points="840,330,940,330" label=""/>
    <wire points="860,140,940,140" label=""/>
    <wire points="880,580,970,580" label=""/>
    <wire points="880,450,880,580" label=""/>
    <wire points="940,330,940,140" label=""/>
    <wire points="970,740,970,810" label=""/>
    <wire points="970,620,970,530" label=""/>
    <wire points="970,410,970,370" label=""/>
    <wire points="1150,810,1150,630" label=""/>
    <wire points="1150,510,1150,470" label=""/>
    <wire points="1150,410,1150,370" label=""/>
    <wire points="1200,370,840,370" label=""/>
    <wire points="1260,370,1300,370" label=""/>
    <wire points="1300,810,270,810" label=""/>
    <wire points="250,370,250,390" label=""/>
    <wire points="250,790,250,810" label=""/>
    <wire points="250,590,250,790" label=""/>
    <wire points="250,470,250,390" label=""/>
    <wire points="1320,370,1320,390" label=""/>
    <wire points="1320,790,1320,810" label=""/>
    <wire points="1320,790,1320,730" label=""/>
    <wire points="1320,550,1320,610" label=""/>
    <wire points="1320,550,1320,510" label=""/>
    <wire points="1320,390,1320,450" label=""/>
  </circuit>
  <analysis>
    <altium_simulation>
      <parameter idx="0" name="TSTOP" value="8m" group=".TRAN"/>
      <parameter idx="1" name="RELTOL" value="0.001" group=".TRAN"/>
      <parameter idx="2" name="KCLTOL" value="10n" group=".TRAN"/>
      <parameter idx="3" name="VABSTOL" value="10u" group=".TRAN"/>
      <parameter idx="4" name="TRES" value="1n" group=".TRAN"/>
      <parameter idx="5" name="IABSTOL" value="10n" group=".TRAN"/>
      <parameter idx="6" name="LTERATIO" value="20" group=".TRAN"/>
      <parameter idx="7" name="TSTART" value="0" group=".TRAN"/>
      <parameter idx="8" name="TMIN" value="1e-18" group=".TRAN"/>
      <parameter idx="9" name="LTERELRATIO" value="20" group=".TRAN"/>
      <parameter idx="10" name="OPTSTEP" value="off" group=".TRAN"/>
      <parameter idx="11" name="TRAN_LIMITING" value="true" group=".OPTIONS"/>
      <parameter idx="12" name="MAXMOS_DIM" value="1000000000" group=".OPTIONS"/>
      <parameter idx="13" name="ROUND_ABSTOL" value="1" group=".OPTIONS"/>
      <parameter idx="14" name="ROUND_RELTOL" value="1" group=".OPTIONS"/>
      <parameter idx="15" name="FILTER" value="false" group=".OPTIONS"/>
      <parameter idx="16" name="CHECK_DCMAX" value="false" group=".OPTIONS"/>
      <parameter idx="17" name="CMIN" value="1.1f" group=".TRAN"/>
      <parameter idx="18" name="Simulator" value="pspice" group="GENERAL"/>
    </altium_simulation>
  </analysis>
  <encrypt_macros>
    <macro filename="MAIN_BLOCK.U1.WB_TLV61046ADBV.enl">
      <![CDATA[-------- ENCRYPTED FILE --------
3/LOuwHb9Eg=
4wuIZPfqbpUPWk4wyP0EWeU+B5FS4QOp285BHJcxVkNubhSGyo4qTuNOrSYtPlAw0CpFNI8hZkLUgnmPIJksiA==
EmveQ1bBmthn7yQtyodSVD1cVmZoSrXJxa8b7ZfN1Nrf5Vl6BJEnLmYGFFLjrDKBl7vaRWyD
GFWBS2HLsYcfl71bMDUNKN+wzmyCwMWkpMl2+SoAE5FBs7bK6RGslyLOfIFYYPi0FrwZ9KTm
2GgrHn0+OrMu4nsS9tJb5bDFW2rKInLiVcxObT71/H5bCT/m6/VQ7/4snTleeuevJGAYi7MD
/58Vn2Vwk6X4HcqNGMz4IJJT08uuy99nsT2bAv6UuT9D9dCHoo4lLD/52DDjLEMK3a7OmTQo
dDCNrPwUEB/TjBaL0bDeXCyOPZqDnWq/NY6lx+TK0X+ntZH/Y9p6EqmmE+OqMftAoFZO7Tgo
uJfSaWzw8YGYGWoil7sbtQNhI2xqkqvBI+J7O2hocL0Qhv0plwYdp86C0yneeIxye3neIw/p
NQsYAZvR7UMp66YSk8WHxhDzPS4Kjrm8TeVvELEnXcmgRqNIt5w6wES53DlwAA2SbIxfiIde
ONWZTMSOOI3nKC54cuZkR7iT1B0nlc8o+/FZrteFJyiXfM7ZWZrZlQCzLhHOl47HvEMbrzIP
qnQwn2rBtzG+6RhRV7ZNv+zXaO/KUeAtd8vKfZY7orwFkYXuDTkV68/gwThJlDot+jP9826f
z8Ze74kWKMlorNrWOczaMkxm4Hq6wZFbo3P/12w+EHs28MbrscHrSeFH1kUBi89ytHoRgrEt
0zPtDQbA5RgkIaOqsxXv7ahFU9EmAloH3JA0ZDBNF1NLf5XE8GEcN57kKl6rXSrKO3jUdzyK
loG5bZLyVXY/fzY1JGrGF5y/DZwEibpRbmiRCySiLFn8R+hRnc7SunT2sqNgx0hL8JRXog2c
/xR5rumwhNNYJC5ljUzkLiRxcheIx4inRHkDdBNH1TVuK2BhyCnoEWxVLSHBVlAfsninsOJ7
OeGwdF8VpVPmsKfODn0LYwdEP6KeEBLdPh4+c9lcCLyEC6K6iUfQqSWtc1+yajozEdeBXW3P
o3fmquYip+myodkKlEtbdEskLiKqf8d4aVc8XqxDh79qCocLppblHu4AKWSafF0MxUr9OD1m
z6eb+tMDY9iUy8IiMVbfNV9BmygfZ6CikgV6KFDIK0E4bIcYG4ltNYsKRpX1pA6a2lS/FTuw
vGfxjmJx1pOg2bgcUT16kPpT14VZpKT8QOc4F+C0YplClhy2Kv4rjz1fPYeV7qzS0sxT8A2i
qcBrw3gu5cPRG3e4zfvNXHsY4bBT69c5mtSBEDRxMzxhiph2rSHR8CN488329qIZBK6UUhn4
f8XI2XBUPwSG0BRb1CdSxtlc27sfddypIZC6L3cw+Z7jCosq4IN9+jLoCSOer6SRH4SM9L+Q
PCS5ehIfojvBa2CYIAiqGufLPcyaqJ6IYvhjmxB/dFpRRhdwhBihkhRowUMirUu9m8a3OM9B
0dwEuxwY89MDzS9WffsRWVtfGN2U0Od8t7cuK+xWeaFDzsdpPoUA23DVyb3d/1VGOppdAgEK
wqUJ6lfkDPrcrkjyV1HOLqaB7a5cjvDAR9h5+RzPJdfOb99ZCF+Z5mp/jjllcXGY+lP7tQ2Y
rms1BCvmlDTYmypnak9C8lqLDrnpEPmLGV+eA4JvATF2oLGiAqGi7ZYqX9bdJ0VFtyNQHYsY
pkAT854vu2970u6GqpEVFAmuZo/hQPnjJbqduPnq1EGurOUEaZYoaGMyaz39l/GRAk+uYMwh